*SPEF "ieee 1481-1999"
*DESIGN "oto_pilot"
*DATE "11:11:11 Fri 11 11, 1111"
*VENDOR "OpenRCX"
*PROGRAM "Parallel Extraction"
*VERSION "1.0"
*DESIGN_FLOW "NAME_SCOPE LOCAL" "PIN_CAP NONE"
*DIVIDER /
*DELIMITER :
*BUS_DELIMITER []
*T_UNIT 1 NS
*C_UNIT 1 PF
*R_UNIT 1 OHM
*L_UNIT 1 HENRY

*NAME_MAP
*1 clock
*2 io_in[0]
*3 io_in[10]
*4 io_in[11]
*5 io_in[12]
*6 io_in[13]
*7 io_in[14]
*8 io_in[15]
*9 io_in[16]
*10 io_in[17]
*11 io_in[18]
*12 io_in[1]
*13 io_in[2]
*14 io_in[3]
*15 io_in[4]
*16 io_in[5]
*17 io_in[6]
*18 io_in[7]
*19 io_in[8]
*20 io_in[9]
*21 net24
*22 net25
*23 net26
*24 io_out[0]
*25 io_out[1]
*26 io_out[2]
*27 reset
*30 _000_
*31 _001_
*32 _002_
*33 _003_
*34 _004_
*35 _005_
*36 _006_
*37 _007_
*38 _008_
*39 _009_
*40 _010_
*41 _011_
*42 _012_
*43 _013_
*44 _014_
*45 _015_
*46 _016_
*47 _017_
*48 _018_
*49 _019_
*50 _020_
*51 _021_
*52 _022_
*53 _023_
*54 _024_
*55 _025_
*56 _026_
*57 _027_
*58 _028_
*59 _029_
*60 _030_
*61 _031_
*62 _032_
*63 _033_
*64 _034_
*65 _035_
*66 _036_
*67 _037_
*68 _038_
*69 _039_
*70 _040_
*71 _041_
*72 _042_
*73 _043_
*74 _044_
*75 _045_
*76 _046_
*77 _047_
*78 _048_
*79 _049_
*80 _050_
*81 _051_
*82 _052_
*83 _053_
*84 _054_
*85 _055_
*86 _056_
*87 _057_
*88 _058_
*89 _059_
*90 _060_
*91 _061_
*92 _062_
*93 _063_
*94 _064_
*95 _065_
*96 _066_
*97 _067_
*98 _068_
*99 _069_
*100 _070_
*101 _071_
*102 _072_
*103 _073_
*104 _074_
*105 _075_
*106 _076_
*107 _077_
*108 _078_
*109 _079_
*110 _080_
*111 _081_
*112 _082_
*113 _083_
*114 _084_
*115 _085_
*116 _086_
*117 _087_
*118 _088_
*119 _089_
*120 _090_
*121 _091_
*122 _092_
*123 _093_
*124 _094_
*125 _095_
*126 _096_
*127 _097_
*128 _098_
*129 _099_
*130 _100_
*131 _101_
*132 _102_
*133 _103_
*134 _104_
*135 _105_
*136 _106_
*137 _107_
*138 _108_
*139 _109_
*140 _110_
*141 _111_
*142 _112_
*143 _113_
*144 _114_
*145 _115_
*146 _116_
*147 _117_
*148 _118_
*149 _119_
*150 atanan_yukseklik\[0\]
*151 atanan_yukseklik\[1\]
*152 atanan_yukseklik\[2\]
*153 atanan_yukseklik\[3\]
*154 atanan_yukseklik\[4\]
*155 atanan_yukseklik\[5\]
*156 clknet_0_clock
*157 clknet_1_0__leaf_clock
*158 clknet_1_1__leaf_clock
*159 hata_sayaci\[0\]
*160 hata_sayaci\[1\]
*161 net1
*162 net10
*163 net11
*164 net12
*165 net13
*166 net14
*167 net15
*168 net16
*169 net17
*170 net18
*171 net19
*172 net2
*173 net20
*174 net21
*175 net22
*176 net23
*177 net3
*178 net4
*179 net5
*180 net6
*181 net7
*182 net8
*183 net9
*184 state\[0\]
*185 state\[1\]
*186 state\[2\]
*187 ANTENNA__120__A
*188 ANTENNA__121__A
*189 ANTENNA__122__A1
*190 ANTENNA__122__A2
*191 ANTENNA__122__B1
*192 ANTENNA__123__A
*193 ANTENNA__123__B
*194 ANTENNA__124__A1
*195 ANTENNA__124__A2
*196 ANTENNA__124__A3
*197 ANTENNA__125__A
*198 ANTENNA__125__B
*199 ANTENNA__126__A2
*200 ANTENNA__127__A1
*201 ANTENNA__127__B1
*202 ANTENNA__127__D1
*203 ANTENNA__128__A
*204 ANTENNA__128__B
*205 ANTENNA__130__A
*206 ANTENNA__132__A1
*207 ANTENNA__133__A_N
*208 ANTENNA__133__D
*209 ANTENNA__135__A
*210 ANTENNA__136__A1
*211 ANTENNA__138__A1
*212 ANTENNA__138__B1
*213 ANTENNA__139__A1
*214 ANTENNA__140__A
*215 ANTENNA__141__A1
*216 ANTENNA__142__A
*217 ANTENNA__143__A1
*218 ANTENNA__144__A
*219 ANTENNA__145__A1
*220 ANTENNA__146__A
*221 ANTENNA__147__A1
*222 ANTENNA__148__A
*223 ANTENNA__149__A1
*224 ANTENNA__150__A
*225 ANTENNA__151__A1
*226 ANTENNA__161__B
*227 ANTENNA__162__A
*228 ANTENNA__163__B
*229 ANTENNA__175__B_N
*230 ANTENNA__176__A_N
*231 ANTENNA__181__A
*232 ANTENNA__182__B_N
*233 ANTENNA__215__A1
*234 ANTENNA__215__B2
*235 ANTENNA__221__A
*236 ANTENNA__222__A1_N
*237 ANTENNA__223__B1_N
*238 ANTENNA__226__A
*239 ANTENNA__228__B1
*240 ANTENNA__229__A
*241 ANTENNA__230__B
*242 ANTENNA__233__A1
*243 ANTENNA__233__B2
*244 ANTENNA__235__A1
*245 ANTENNA__235__C1
*246 ANTENNA__236__A1
*247 ANTENNA__236__A2
*248 ANTENNA__237__A1
*249 ANTENNA__237__B1
*250 ANTENNA__238__A
*251 ANTENNA__238__B_N
*252 ANTENNA__239__B1
*253 ANTENNA__240__D
*254 ANTENNA__241__D
*255 ANTENNA__242__D
*256 ANTENNA__243__D
*257 ANTENNA__244__D
*258 ANTENNA__245__D
*259 ANTENNA__246__D
*260 ANTENNA__247__D
*261 ANTENNA__248__D
*262 ANTENNA__249__D
*263 ANTENNA__250__D
*264 ANTENNA__251__D
*265 ANTENNA__252__D
*266 ANTENNA__253__D
*267 ANTENNA_clkbuf_0_clock_A
*268 ANTENNA_input10_A
*269 ANTENNA_input11_A
*270 ANTENNA_input12_A
*271 ANTENNA_input13_A
*272 ANTENNA_input14_A
*273 ANTENNA_input15_A
*274 ANTENNA_input16_A
*275 ANTENNA_input17_A
*276 ANTENNA_input18_A
*277 ANTENNA_input19_A
*278 ANTENNA_input1_A
*279 ANTENNA_input20_A
*280 ANTENNA_input2_A
*281 ANTENNA_input3_A
*282 ANTENNA_input4_A
*283 ANTENNA_input5_A
*284 ANTENNA_input6_A
*285 ANTENNA_input7_A
*286 ANTENNA_input8_A
*287 ANTENNA_input9_A
*288 ANTENNA_output21_A
*289 ANTENNA_output22_A
*290 ANTENNA_output23_A
*291 FILLER_0_109
*292 FILLER_0_113
*293 FILLER_0_125
*294 FILLER_0_137
*295 FILLER_0_141
*296 FILLER_0_15
*297 FILLER_0_153
*298 FILLER_0_165
*299 FILLER_0_169
*300 FILLER_0_181
*301 FILLER_0_193
*302 FILLER_0_197
*303 FILLER_0_209
*304 FILLER_0_221
*305 FILLER_0_225
*306 FILLER_0_237
*307 FILLER_0_249
*308 FILLER_0_253
*309 FILLER_0_265
*310 FILLER_0_27
*311 FILLER_0_277
*312 FILLER_0_281
*313 FILLER_0_29
*314 FILLER_0_293
*315 FILLER_0_3
*316 FILLER_0_305
*317 FILLER_0_309
*318 FILLER_0_313
*319 FILLER_0_320
*320 FILLER_0_332
*321 FILLER_0_337
*322 FILLER_0_349
*323 FILLER_0_361
*324 FILLER_0_365
*325 FILLER_0_377
*326 FILLER_0_389
*327 FILLER_0_393
*328 FILLER_0_405
*329 FILLER_0_41
*330 FILLER_0_53
*331 FILLER_0_57
*332 FILLER_0_69
*333 FILLER_0_81
*334 FILLER_0_85
*335 FILLER_0_97
*336 FILLER_100_101
*337 FILLER_100_104
*338 FILLER_100_115
*339 FILLER_100_123
*340 FILLER_100_129
*341 FILLER_100_137
*342 FILLER_100_141
*343 FILLER_100_15
*344 FILLER_100_153
*345 FILLER_100_165
*346 FILLER_100_177
*347 FILLER_100_189
*348 FILLER_100_195
*349 FILLER_100_197
*350 FILLER_100_209
*351 FILLER_100_221
*352 FILLER_100_233
*353 FILLER_100_245
*354 FILLER_100_251
*355 FILLER_100_253
*356 FILLER_100_265
*357 FILLER_100_27
*358 FILLER_100_277
*359 FILLER_100_289
*360 FILLER_100_29
*361 FILLER_100_3
*362 FILLER_100_301
*363 FILLER_100_307
*364 FILLER_100_309
*365 FILLER_100_321
*366 FILLER_100_333
*367 FILLER_100_345
*368 FILLER_100_357
*369 FILLER_100_363
*370 FILLER_100_365
*371 FILLER_100_377
*372 FILLER_100_389
*373 FILLER_100_401
*374 FILLER_100_41
*375 FILLER_100_53
*376 FILLER_100_65
*377 FILLER_100_77
*378 FILLER_100_83
*379 FILLER_100_85
*380 FILLER_100_97
*381 FILLER_101_105
*382 FILLER_101_109
*383 FILLER_101_113
*384 FILLER_101_125
*385 FILLER_101_137
*386 FILLER_101_149
*387 FILLER_101_15
*388 FILLER_101_161
*389 FILLER_101_167
*390 FILLER_101_169
*391 FILLER_101_181
*392 FILLER_101_193
*393 FILLER_101_205
*394 FILLER_101_217
*395 FILLER_101_223
*396 FILLER_101_225
*397 FILLER_101_237
*398 FILLER_101_249
*399 FILLER_101_261
*400 FILLER_101_27
*401 FILLER_101_273
*402 FILLER_101_279
*403 FILLER_101_281
*404 FILLER_101_293
*405 FILLER_101_3
*406 FILLER_101_305
*407 FILLER_101_317
*408 FILLER_101_329
*409 FILLER_101_335
*410 FILLER_101_337
*411 FILLER_101_349
*412 FILLER_101_361
*413 FILLER_101_373
*414 FILLER_101_385
*415 FILLER_101_39
*416 FILLER_101_391
*417 FILLER_101_393
*418 FILLER_101_405
*419 FILLER_101_51
*420 FILLER_101_55
*421 FILLER_101_57
*422 FILLER_101_69
*423 FILLER_101_81
*424 FILLER_101_93
*425 FILLER_102_105
*426 FILLER_102_116
*427 FILLER_102_122
*428 FILLER_102_134
*429 FILLER_102_141
*430 FILLER_102_15
*431 FILLER_102_153
*432 FILLER_102_165
*433 FILLER_102_177
*434 FILLER_102_189
*435 FILLER_102_195
*436 FILLER_102_197
*437 FILLER_102_209
*438 FILLER_102_221
*439 FILLER_102_233
*440 FILLER_102_245
*441 FILLER_102_251
*442 FILLER_102_253
*443 FILLER_102_265
*444 FILLER_102_27
*445 FILLER_102_277
*446 FILLER_102_289
*447 FILLER_102_29
*448 FILLER_102_3
*449 FILLER_102_301
*450 FILLER_102_307
*451 FILLER_102_309
*452 FILLER_102_321
*453 FILLER_102_333
*454 FILLER_102_345
*455 FILLER_102_357
*456 FILLER_102_363
*457 FILLER_102_365
*458 FILLER_102_377
*459 FILLER_102_389
*460 FILLER_102_401
*461 FILLER_102_41
*462 FILLER_102_53
*463 FILLER_102_65
*464 FILLER_102_77
*465 FILLER_102_83
*466 FILLER_102_85
*467 FILLER_102_97
*468 FILLER_103_110
*469 FILLER_103_113
*470 FILLER_103_123
*471 FILLER_103_129
*472 FILLER_103_141
*473 FILLER_103_15
*474 FILLER_103_153
*475 FILLER_103_165
*476 FILLER_103_169
*477 FILLER_103_181
*478 FILLER_103_193
*479 FILLER_103_205
*480 FILLER_103_217
*481 FILLER_103_223
*482 FILLER_103_225
*483 FILLER_103_237
*484 FILLER_103_249
*485 FILLER_103_261
*486 FILLER_103_27
*487 FILLER_103_273
*488 FILLER_103_279
*489 FILLER_103_281
*490 FILLER_103_293
*491 FILLER_103_3
*492 FILLER_103_305
*493 FILLER_103_317
*494 FILLER_103_329
*495 FILLER_103_335
*496 FILLER_103_337
*497 FILLER_103_349
*498 FILLER_103_361
*499 FILLER_103_373
*500 FILLER_103_385
*501 FILLER_103_39
*502 FILLER_103_391
*503 FILLER_103_393
*504 FILLER_103_405
*505 FILLER_103_51
*506 FILLER_103_55
*507 FILLER_103_57
*508 FILLER_103_69
*509 FILLER_103_81
*510 FILLER_103_93
*511 FILLER_104_103
*512 FILLER_104_109
*513 FILLER_104_118
*514 FILLER_104_124
*515 FILLER_104_127
*516 FILLER_104_133
*517 FILLER_104_139
*518 FILLER_104_141
*519 FILLER_104_15
*520 FILLER_104_153
*521 FILLER_104_165
*522 FILLER_104_177
*523 FILLER_104_189
*524 FILLER_104_195
*525 FILLER_104_197
*526 FILLER_104_209
*527 FILLER_104_221
*528 FILLER_104_233
*529 FILLER_104_245
*530 FILLER_104_251
*531 FILLER_104_253
*532 FILLER_104_265
*533 FILLER_104_27
*534 FILLER_104_277
*535 FILLER_104_289
*536 FILLER_104_29
*537 FILLER_104_3
*538 FILLER_104_301
*539 FILLER_104_307
*540 FILLER_104_309
*541 FILLER_104_321
*542 FILLER_104_333
*543 FILLER_104_345
*544 FILLER_104_357
*545 FILLER_104_363
*546 FILLER_104_365
*547 FILLER_104_377
*548 FILLER_104_389
*549 FILLER_104_401
*550 FILLER_104_41
*551 FILLER_104_53
*552 FILLER_104_65
*553 FILLER_104_77
*554 FILLER_104_83
*555 FILLER_104_85
*556 FILLER_104_93
*557 FILLER_104_97
*558 FILLER_105_101
*559 FILLER_105_105
*560 FILLER_105_110
*561 FILLER_105_113
*562 FILLER_105_123
*563 FILLER_105_131
*564 FILLER_105_137
*565 FILLER_105_149
*566 FILLER_105_15
*567 FILLER_105_161
*568 FILLER_105_167
*569 FILLER_105_169
*570 FILLER_105_181
*571 FILLER_105_193
*572 FILLER_105_205
*573 FILLER_105_217
*574 FILLER_105_223
*575 FILLER_105_225
*576 FILLER_105_237
*577 FILLER_105_249
*578 FILLER_105_261
*579 FILLER_105_27
*580 FILLER_105_273
*581 FILLER_105_279
*582 FILLER_105_281
*583 FILLER_105_293
*584 FILLER_105_3
*585 FILLER_105_305
*586 FILLER_105_317
*587 FILLER_105_329
*588 FILLER_105_335
*589 FILLER_105_337
*590 FILLER_105_349
*591 FILLER_105_361
*592 FILLER_105_373
*593 FILLER_105_385
*594 FILLER_105_39
*595 FILLER_105_391
*596 FILLER_105_393
*597 FILLER_105_405
*598 FILLER_105_51
*599 FILLER_105_55
*600 FILLER_105_57
*601 FILLER_105_69
*602 FILLER_105_81
*603 FILLER_105_91
*604 FILLER_106_101
*605 FILLER_106_107
*606 FILLER_106_121
*607 FILLER_106_128
*608 FILLER_106_135
*609 FILLER_106_139
*610 FILLER_106_141
*611 FILLER_106_15
*612 FILLER_106_153
*613 FILLER_106_165
*614 FILLER_106_177
*615 FILLER_106_189
*616 FILLER_106_195
*617 FILLER_106_197
*618 FILLER_106_209
*619 FILLER_106_221
*620 FILLER_106_233
*621 FILLER_106_245
*622 FILLER_106_251
*623 FILLER_106_253
*624 FILLER_106_265
*625 FILLER_106_27
*626 FILLER_106_277
*627 FILLER_106_289
*628 FILLER_106_29
*629 FILLER_106_3
*630 FILLER_106_301
*631 FILLER_106_307
*632 FILLER_106_309
*633 FILLER_106_321
*634 FILLER_106_333
*635 FILLER_106_345
*636 FILLER_106_357
*637 FILLER_106_363
*638 FILLER_106_365
*639 FILLER_106_377
*640 FILLER_106_389
*641 FILLER_106_401
*642 FILLER_106_41
*643 FILLER_106_53
*644 FILLER_106_65
*645 FILLER_106_77
*646 FILLER_106_83
*647 FILLER_106_85
*648 FILLER_106_95
*649 FILLER_107_101
*650 FILLER_107_104
*651 FILLER_107_110
*652 FILLER_107_113
*653 FILLER_107_121
*654 FILLER_107_129
*655 FILLER_107_135
*656 FILLER_107_147
*657 FILLER_107_15
*658 FILLER_107_159
*659 FILLER_107_167
*660 FILLER_107_169
*661 FILLER_107_181
*662 FILLER_107_193
*663 FILLER_107_205
*664 FILLER_107_217
*665 FILLER_107_223
*666 FILLER_107_225
*667 FILLER_107_237
*668 FILLER_107_249
*669 FILLER_107_261
*670 FILLER_107_27
*671 FILLER_107_273
*672 FILLER_107_279
*673 FILLER_107_281
*674 FILLER_107_293
*675 FILLER_107_3
*676 FILLER_107_305
*677 FILLER_107_317
*678 FILLER_107_329
*679 FILLER_107_335
*680 FILLER_107_337
*681 FILLER_107_349
*682 FILLER_107_361
*683 FILLER_107_373
*684 FILLER_107_385
*685 FILLER_107_39
*686 FILLER_107_391
*687 FILLER_107_393
*688 FILLER_107_405
*689 FILLER_107_51
*690 FILLER_107_55
*691 FILLER_107_57
*692 FILLER_107_69
*693 FILLER_107_81
*694 FILLER_107_93
*695 FILLER_108_109
*696 FILLER_108_115
*697 FILLER_108_126
*698 FILLER_108_132
*699 FILLER_108_141
*700 FILLER_108_15
*701 FILLER_108_153
*702 FILLER_108_165
*703 FILLER_108_177
*704 FILLER_108_189
*705 FILLER_108_195
*706 FILLER_108_197
*707 FILLER_108_209
*708 FILLER_108_221
*709 FILLER_108_233
*710 FILLER_108_245
*711 FILLER_108_251
*712 FILLER_108_253
*713 FILLER_108_265
*714 FILLER_108_27
*715 FILLER_108_277
*716 FILLER_108_289
*717 FILLER_108_29
*718 FILLER_108_3
*719 FILLER_108_301
*720 FILLER_108_307
*721 FILLER_108_309
*722 FILLER_108_321
*723 FILLER_108_333
*724 FILLER_108_345
*725 FILLER_108_357
*726 FILLER_108_363
*727 FILLER_108_365
*728 FILLER_108_377
*729 FILLER_108_389
*730 FILLER_108_401
*731 FILLER_108_41
*732 FILLER_108_53
*733 FILLER_108_65
*734 FILLER_108_77
*735 FILLER_108_83
*736 FILLER_108_85
*737 FILLER_108_97
*738 FILLER_109_105
*739 FILLER_109_111
*740 FILLER_109_113
*741 FILLER_109_118
*742 FILLER_109_127
*743 FILLER_109_133
*744 FILLER_109_145
*745 FILLER_109_15
*746 FILLER_109_157
*747 FILLER_109_165
*748 FILLER_109_169
*749 FILLER_109_181
*750 FILLER_109_193
*751 FILLER_109_205
*752 FILLER_109_217
*753 FILLER_109_223
*754 FILLER_109_225
*755 FILLER_109_237
*756 FILLER_109_249
*757 FILLER_109_261
*758 FILLER_109_27
*759 FILLER_109_273
*760 FILLER_109_279
*761 FILLER_109_281
*762 FILLER_109_293
*763 FILLER_109_3
*764 FILLER_109_305
*765 FILLER_109_317
*766 FILLER_109_329
*767 FILLER_109_335
*768 FILLER_109_337
*769 FILLER_109_349
*770 FILLER_109_361
*771 FILLER_109_373
*772 FILLER_109_385
*773 FILLER_109_39
*774 FILLER_109_391
*775 FILLER_109_393
*776 FILLER_109_405
*777 FILLER_109_51
*778 FILLER_109_55
*779 FILLER_109_57
*780 FILLER_109_69
*781 FILLER_109_81
*782 FILLER_109_93
*783 FILLER_10_119
*784 FILLER_10_125
*785 FILLER_10_131
*786 FILLER_10_139
*787 FILLER_10_141
*788 FILLER_10_15
*789 FILLER_10_153
*790 FILLER_10_165
*791 FILLER_10_177
*792 FILLER_10_189
*793 FILLER_10_195
*794 FILLER_10_197
*795 FILLER_10_209
*796 FILLER_10_221
*797 FILLER_10_233
*798 FILLER_10_245
*799 FILLER_10_251
*800 FILLER_10_253
*801 FILLER_10_265
*802 FILLER_10_27
*803 FILLER_10_277
*804 FILLER_10_289
*805 FILLER_10_29
*806 FILLER_10_3
*807 FILLER_10_301
*808 FILLER_10_307
*809 FILLER_10_309
*810 FILLER_10_321
*811 FILLER_10_333
*812 FILLER_10_345
*813 FILLER_10_357
*814 FILLER_10_363
*815 FILLER_10_365
*816 FILLER_10_377
*817 FILLER_10_389
*818 FILLER_10_401
*819 FILLER_10_41
*820 FILLER_10_53
*821 FILLER_10_65
*822 FILLER_10_77
*823 FILLER_10_83
*824 FILLER_10_85
*825 FILLER_10_91
*826 FILLER_10_99
*827 FILLER_110_109
*828 FILLER_110_121
*829 FILLER_110_133
*830 FILLER_110_139
*831 FILLER_110_141
*832 FILLER_110_15
*833 FILLER_110_153
*834 FILLER_110_165
*835 FILLER_110_177
*836 FILLER_110_189
*837 FILLER_110_195
*838 FILLER_110_197
*839 FILLER_110_209
*840 FILLER_110_221
*841 FILLER_110_233
*842 FILLER_110_245
*843 FILLER_110_251
*844 FILLER_110_253
*845 FILLER_110_265
*846 FILLER_110_27
*847 FILLER_110_277
*848 FILLER_110_289
*849 FILLER_110_29
*850 FILLER_110_3
*851 FILLER_110_301
*852 FILLER_110_307
*853 FILLER_110_309
*854 FILLER_110_321
*855 FILLER_110_333
*856 FILLER_110_345
*857 FILLER_110_357
*858 FILLER_110_363
*859 FILLER_110_365
*860 FILLER_110_377
*861 FILLER_110_389
*862 FILLER_110_401
*863 FILLER_110_41
*864 FILLER_110_53
*865 FILLER_110_65
*866 FILLER_110_77
*867 FILLER_110_83
*868 FILLER_110_85
*869 FILLER_110_97
*870 FILLER_111_105
*871 FILLER_111_111
*872 FILLER_111_113
*873 FILLER_111_125
*874 FILLER_111_137
*875 FILLER_111_149
*876 FILLER_111_15
*877 FILLER_111_161
*878 FILLER_111_167
*879 FILLER_111_169
*880 FILLER_111_181
*881 FILLER_111_193
*882 FILLER_111_205
*883 FILLER_111_217
*884 FILLER_111_223
*885 FILLER_111_225
*886 FILLER_111_237
*887 FILLER_111_249
*888 FILLER_111_261
*889 FILLER_111_27
*890 FILLER_111_273
*891 FILLER_111_279
*892 FILLER_111_281
*893 FILLER_111_293
*894 FILLER_111_3
*895 FILLER_111_305
*896 FILLER_111_317
*897 FILLER_111_329
*898 FILLER_111_335
*899 FILLER_111_337
*900 FILLER_111_349
*901 FILLER_111_361
*902 FILLER_111_373
*903 FILLER_111_385
*904 FILLER_111_39
*905 FILLER_111_391
*906 FILLER_111_393
*907 FILLER_111_405
*908 FILLER_111_51
*909 FILLER_111_55
*910 FILLER_111_57
*911 FILLER_111_69
*912 FILLER_111_81
*913 FILLER_111_93
*914 FILLER_112_109
*915 FILLER_112_121
*916 FILLER_112_133
*917 FILLER_112_139
*918 FILLER_112_141
*919 FILLER_112_15
*920 FILLER_112_153
*921 FILLER_112_165
*922 FILLER_112_177
*923 FILLER_112_189
*924 FILLER_112_195
*925 FILLER_112_197
*926 FILLER_112_209
*927 FILLER_112_221
*928 FILLER_112_233
*929 FILLER_112_245
*930 FILLER_112_251
*931 FILLER_112_253
*932 FILLER_112_265
*933 FILLER_112_27
*934 FILLER_112_277
*935 FILLER_112_289
*936 FILLER_112_29
*937 FILLER_112_3
*938 FILLER_112_301
*939 FILLER_112_307
*940 FILLER_112_309
*941 FILLER_112_321
*942 FILLER_112_333
*943 FILLER_112_345
*944 FILLER_112_357
*945 FILLER_112_363
*946 FILLER_112_365
*947 FILLER_112_377
*948 FILLER_112_389
*949 FILLER_112_401
*950 FILLER_112_41
*951 FILLER_112_53
*952 FILLER_112_65
*953 FILLER_112_77
*954 FILLER_112_83
*955 FILLER_112_85
*956 FILLER_112_97
*957 FILLER_113_105
*958 FILLER_113_111
*959 FILLER_113_113
*960 FILLER_113_125
*961 FILLER_113_137
*962 FILLER_113_149
*963 FILLER_113_15
*964 FILLER_113_161
*965 FILLER_113_167
*966 FILLER_113_169
*967 FILLER_113_181
*968 FILLER_113_193
*969 FILLER_113_205
*970 FILLER_113_217
*971 FILLER_113_223
*972 FILLER_113_225
*973 FILLER_113_237
*974 FILLER_113_249
*975 FILLER_113_261
*976 FILLER_113_27
*977 FILLER_113_273
*978 FILLER_113_279
*979 FILLER_113_281
*980 FILLER_113_293
*981 FILLER_113_3
*982 FILLER_113_305
*983 FILLER_113_317
*984 FILLER_113_329
*985 FILLER_113_335
*986 FILLER_113_337
*987 FILLER_113_349
*988 FILLER_113_361
*989 FILLER_113_373
*990 FILLER_113_385
*991 FILLER_113_39
*992 FILLER_113_391
*993 FILLER_113_393
*994 FILLER_113_405
*995 FILLER_113_51
*996 FILLER_113_55
*997 FILLER_113_57
*998 FILLER_113_69
*999 FILLER_113_81
*1000 FILLER_113_93
*1001 FILLER_114_109
*1002 FILLER_114_121
*1003 FILLER_114_133
*1004 FILLER_114_139
*1005 FILLER_114_141
*1006 FILLER_114_15
*1007 FILLER_114_153
*1008 FILLER_114_165
*1009 FILLER_114_177
*1010 FILLER_114_189
*1011 FILLER_114_195
*1012 FILLER_114_197
*1013 FILLER_114_209
*1014 FILLER_114_221
*1015 FILLER_114_233
*1016 FILLER_114_245
*1017 FILLER_114_251
*1018 FILLER_114_253
*1019 FILLER_114_265
*1020 FILLER_114_27
*1021 FILLER_114_277
*1022 FILLER_114_289
*1023 FILLER_114_29
*1024 FILLER_114_3
*1025 FILLER_114_301
*1026 FILLER_114_307
*1027 FILLER_114_309
*1028 FILLER_114_321
*1029 FILLER_114_333
*1030 FILLER_114_345
*1031 FILLER_114_357
*1032 FILLER_114_363
*1033 FILLER_114_365
*1034 FILLER_114_377
*1035 FILLER_114_389
*1036 FILLER_114_401
*1037 FILLER_114_41
*1038 FILLER_114_53
*1039 FILLER_114_65
*1040 FILLER_114_77
*1041 FILLER_114_83
*1042 FILLER_114_85
*1043 FILLER_114_97
*1044 FILLER_115_105
*1045 FILLER_115_111
*1046 FILLER_115_113
*1047 FILLER_115_125
*1048 FILLER_115_137
*1049 FILLER_115_149
*1050 FILLER_115_15
*1051 FILLER_115_161
*1052 FILLER_115_167
*1053 FILLER_115_169
*1054 FILLER_115_181
*1055 FILLER_115_193
*1056 FILLER_115_205
*1057 FILLER_115_217
*1058 FILLER_115_223
*1059 FILLER_115_225
*1060 FILLER_115_237
*1061 FILLER_115_249
*1062 FILLER_115_261
*1063 FILLER_115_27
*1064 FILLER_115_273
*1065 FILLER_115_279
*1066 FILLER_115_281
*1067 FILLER_115_293
*1068 FILLER_115_3
*1069 FILLER_115_305
*1070 FILLER_115_317
*1071 FILLER_115_329
*1072 FILLER_115_335
*1073 FILLER_115_337
*1074 FILLER_115_349
*1075 FILLER_115_361
*1076 FILLER_115_373
*1077 FILLER_115_385
*1078 FILLER_115_39
*1079 FILLER_115_391
*1080 FILLER_115_393
*1081 FILLER_115_405
*1082 FILLER_115_51
*1083 FILLER_115_55
*1084 FILLER_115_57
*1085 FILLER_115_69
*1086 FILLER_115_81
*1087 FILLER_115_93
*1088 FILLER_116_109
*1089 FILLER_116_121
*1090 FILLER_116_133
*1091 FILLER_116_139
*1092 FILLER_116_141
*1093 FILLER_116_15
*1094 FILLER_116_153
*1095 FILLER_116_165
*1096 FILLER_116_177
*1097 FILLER_116_189
*1098 FILLER_116_195
*1099 FILLER_116_197
*1100 FILLER_116_209
*1101 FILLER_116_221
*1102 FILLER_116_233
*1103 FILLER_116_245
*1104 FILLER_116_251
*1105 FILLER_116_253
*1106 FILLER_116_265
*1107 FILLER_116_27
*1108 FILLER_116_277
*1109 FILLER_116_289
*1110 FILLER_116_29
*1111 FILLER_116_3
*1112 FILLER_116_301
*1113 FILLER_116_307
*1114 FILLER_116_309
*1115 FILLER_116_321
*1116 FILLER_116_333
*1117 FILLER_116_345
*1118 FILLER_116_357
*1119 FILLER_116_363
*1120 FILLER_116_365
*1121 FILLER_116_377
*1122 FILLER_116_389
*1123 FILLER_116_401
*1124 FILLER_116_41
*1125 FILLER_116_53
*1126 FILLER_116_65
*1127 FILLER_116_77
*1128 FILLER_116_83
*1129 FILLER_116_85
*1130 FILLER_116_97
*1131 FILLER_117_105
*1132 FILLER_117_111
*1133 FILLER_117_113
*1134 FILLER_117_125
*1135 FILLER_117_137
*1136 FILLER_117_149
*1137 FILLER_117_15
*1138 FILLER_117_161
*1139 FILLER_117_167
*1140 FILLER_117_169
*1141 FILLER_117_181
*1142 FILLER_117_193
*1143 FILLER_117_205
*1144 FILLER_117_217
*1145 FILLER_117_223
*1146 FILLER_117_225
*1147 FILLER_117_237
*1148 FILLER_117_249
*1149 FILLER_117_261
*1150 FILLER_117_27
*1151 FILLER_117_273
*1152 FILLER_117_279
*1153 FILLER_117_281
*1154 FILLER_117_293
*1155 FILLER_117_3
*1156 FILLER_117_305
*1157 FILLER_117_317
*1158 FILLER_117_329
*1159 FILLER_117_335
*1160 FILLER_117_337
*1161 FILLER_117_349
*1162 FILLER_117_361
*1163 FILLER_117_373
*1164 FILLER_117_385
*1165 FILLER_117_39
*1166 FILLER_117_391
*1167 FILLER_117_393
*1168 FILLER_117_405
*1169 FILLER_117_51
*1170 FILLER_117_55
*1171 FILLER_117_57
*1172 FILLER_117_69
*1173 FILLER_117_81
*1174 FILLER_117_93
*1175 FILLER_118_109
*1176 FILLER_118_121
*1177 FILLER_118_133
*1178 FILLER_118_139
*1179 FILLER_118_141
*1180 FILLER_118_15
*1181 FILLER_118_153
*1182 FILLER_118_165
*1183 FILLER_118_177
*1184 FILLER_118_189
*1185 FILLER_118_195
*1186 FILLER_118_197
*1187 FILLER_118_209
*1188 FILLER_118_221
*1189 FILLER_118_233
*1190 FILLER_118_245
*1191 FILLER_118_251
*1192 FILLER_118_253
*1193 FILLER_118_265
*1194 FILLER_118_27
*1195 FILLER_118_277
*1196 FILLER_118_289
*1197 FILLER_118_29
*1198 FILLER_118_3
*1199 FILLER_118_301
*1200 FILLER_118_307
*1201 FILLER_118_309
*1202 FILLER_118_321
*1203 FILLER_118_333
*1204 FILLER_118_345
*1205 FILLER_118_357
*1206 FILLER_118_363
*1207 FILLER_118_365
*1208 FILLER_118_377
*1209 FILLER_118_389
*1210 FILLER_118_401
*1211 FILLER_118_41
*1212 FILLER_118_53
*1213 FILLER_118_65
*1214 FILLER_118_77
*1215 FILLER_118_83
*1216 FILLER_118_85
*1217 FILLER_118_97
*1218 FILLER_119_105
*1219 FILLER_119_111
*1220 FILLER_119_113
*1221 FILLER_119_125
*1222 FILLER_119_135
*1223 FILLER_119_147
*1224 FILLER_119_15
*1225 FILLER_119_159
*1226 FILLER_119_167
*1227 FILLER_119_169
*1228 FILLER_119_181
*1229 FILLER_119_193
*1230 FILLER_119_205
*1231 FILLER_119_217
*1232 FILLER_119_223
*1233 FILLER_119_225
*1234 FILLER_119_237
*1235 FILLER_119_249
*1236 FILLER_119_261
*1237 FILLER_119_27
*1238 FILLER_119_273
*1239 FILLER_119_279
*1240 FILLER_119_281
*1241 FILLER_119_293
*1242 FILLER_119_3
*1243 FILLER_119_305
*1244 FILLER_119_317
*1245 FILLER_119_329
*1246 FILLER_119_335
*1247 FILLER_119_337
*1248 FILLER_119_349
*1249 FILLER_119_361
*1250 FILLER_119_373
*1251 FILLER_119_385
*1252 FILLER_119_39
*1253 FILLER_119_391
*1254 FILLER_119_393
*1255 FILLER_119_405
*1256 FILLER_119_51
*1257 FILLER_119_55
*1258 FILLER_119_57
*1259 FILLER_119_69
*1260 FILLER_119_81
*1261 FILLER_119_93
*1262 FILLER_11_110
*1263 FILLER_11_113
*1264 FILLER_11_132
*1265 FILLER_11_138
*1266 FILLER_11_15
*1267 FILLER_11_150
*1268 FILLER_11_162
*1269 FILLER_11_169
*1270 FILLER_11_181
*1271 FILLER_11_193
*1272 FILLER_11_205
*1273 FILLER_11_217
*1274 FILLER_11_223
*1275 FILLER_11_225
*1276 FILLER_11_237
*1277 FILLER_11_249
*1278 FILLER_11_261
*1279 FILLER_11_27
*1280 FILLER_11_273
*1281 FILLER_11_279
*1282 FILLER_11_281
*1283 FILLER_11_293
*1284 FILLER_11_3
*1285 FILLER_11_305
*1286 FILLER_11_317
*1287 FILLER_11_329
*1288 FILLER_11_335
*1289 FILLER_11_337
*1290 FILLER_11_349
*1291 FILLER_11_361
*1292 FILLER_11_373
*1293 FILLER_11_385
*1294 FILLER_11_39
*1295 FILLER_11_391
*1296 FILLER_11_393
*1297 FILLER_11_405
*1298 FILLER_11_51
*1299 FILLER_11_55
*1300 FILLER_11_57
*1301 FILLER_11_69
*1302 FILLER_11_89
*1303 FILLER_120_109
*1304 FILLER_120_121
*1305 FILLER_120_133
*1306 FILLER_120_139
*1307 FILLER_120_141
*1308 FILLER_120_15
*1309 FILLER_120_153
*1310 FILLER_120_165
*1311 FILLER_120_177
*1312 FILLER_120_189
*1313 FILLER_120_195
*1314 FILLER_120_197
*1315 FILLER_120_209
*1316 FILLER_120_221
*1317 FILLER_120_233
*1318 FILLER_120_245
*1319 FILLER_120_251
*1320 FILLER_120_253
*1321 FILLER_120_265
*1322 FILLER_120_27
*1323 FILLER_120_277
*1324 FILLER_120_289
*1325 FILLER_120_29
*1326 FILLER_120_3
*1327 FILLER_120_301
*1328 FILLER_120_307
*1329 FILLER_120_309
*1330 FILLER_120_321
*1331 FILLER_120_333
*1332 FILLER_120_345
*1333 FILLER_120_357
*1334 FILLER_120_363
*1335 FILLER_120_365
*1336 FILLER_120_377
*1337 FILLER_120_389
*1338 FILLER_120_401
*1339 FILLER_120_41
*1340 FILLER_120_53
*1341 FILLER_120_65
*1342 FILLER_120_77
*1343 FILLER_120_83
*1344 FILLER_120_85
*1345 FILLER_120_97
*1346 FILLER_121_105
*1347 FILLER_121_111
*1348 FILLER_121_113
*1349 FILLER_121_119
*1350 FILLER_121_122
*1351 FILLER_121_131
*1352 FILLER_121_143
*1353 FILLER_121_15
*1354 FILLER_121_155
*1355 FILLER_121_167
*1356 FILLER_121_169
*1357 FILLER_121_181
*1358 FILLER_121_193
*1359 FILLER_121_205
*1360 FILLER_121_217
*1361 FILLER_121_223
*1362 FILLER_121_225
*1363 FILLER_121_237
*1364 FILLER_121_249
*1365 FILLER_121_261
*1366 FILLER_121_27
*1367 FILLER_121_273
*1368 FILLER_121_279
*1369 FILLER_121_281
*1370 FILLER_121_293
*1371 FILLER_121_3
*1372 FILLER_121_305
*1373 FILLER_121_317
*1374 FILLER_121_329
*1375 FILLER_121_335
*1376 FILLER_121_337
*1377 FILLER_121_349
*1378 FILLER_121_361
*1379 FILLER_121_373
*1380 FILLER_121_385
*1381 FILLER_121_39
*1382 FILLER_121_391
*1383 FILLER_121_393
*1384 FILLER_121_405
*1385 FILLER_121_51
*1386 FILLER_121_55
*1387 FILLER_121_57
*1388 FILLER_121_69
*1389 FILLER_121_81
*1390 FILLER_121_93
*1391 FILLER_122_109
*1392 FILLER_122_115
*1393 FILLER_122_119
*1394 FILLER_122_128
*1395 FILLER_122_134
*1396 FILLER_122_141
*1397 FILLER_122_15
*1398 FILLER_122_153
*1399 FILLER_122_165
*1400 FILLER_122_177
*1401 FILLER_122_189
*1402 FILLER_122_195
*1403 FILLER_122_197
*1404 FILLER_122_209
*1405 FILLER_122_221
*1406 FILLER_122_233
*1407 FILLER_122_245
*1408 FILLER_122_251
*1409 FILLER_122_253
*1410 FILLER_122_265
*1411 FILLER_122_27
*1412 FILLER_122_277
*1413 FILLER_122_289
*1414 FILLER_122_29
*1415 FILLER_122_3
*1416 FILLER_122_301
*1417 FILLER_122_307
*1418 FILLER_122_309
*1419 FILLER_122_321
*1420 FILLER_122_333
*1421 FILLER_122_345
*1422 FILLER_122_357
*1423 FILLER_122_363
*1424 FILLER_122_365
*1425 FILLER_122_377
*1426 FILLER_122_389
*1427 FILLER_122_401
*1428 FILLER_122_41
*1429 FILLER_122_53
*1430 FILLER_122_65
*1431 FILLER_122_77
*1432 FILLER_122_83
*1433 FILLER_122_85
*1434 FILLER_122_97
*1435 FILLER_123_105
*1436 FILLER_123_111
*1437 FILLER_123_113
*1438 FILLER_123_123
*1439 FILLER_123_135
*1440 FILLER_123_147
*1441 FILLER_123_15
*1442 FILLER_123_159
*1443 FILLER_123_167
*1444 FILLER_123_169
*1445 FILLER_123_177
*1446 FILLER_123_189
*1447 FILLER_123_201
*1448 FILLER_123_213
*1449 FILLER_123_221
*1450 FILLER_123_225
*1451 FILLER_123_237
*1452 FILLER_123_249
*1453 FILLER_123_261
*1454 FILLER_123_27
*1455 FILLER_123_273
*1456 FILLER_123_279
*1457 FILLER_123_281
*1458 FILLER_123_293
*1459 FILLER_123_3
*1460 FILLER_123_305
*1461 FILLER_123_317
*1462 FILLER_123_329
*1463 FILLER_123_335
*1464 FILLER_123_337
*1465 FILLER_123_349
*1466 FILLER_123_361
*1467 FILLER_123_373
*1468 FILLER_123_385
*1469 FILLER_123_39
*1470 FILLER_123_391
*1471 FILLER_123_393
*1472 FILLER_123_405
*1473 FILLER_123_51
*1474 FILLER_123_55
*1475 FILLER_123_57
*1476 FILLER_123_69
*1477 FILLER_123_81
*1478 FILLER_123_93
*1479 FILLER_124_109
*1480 FILLER_124_121
*1481 FILLER_124_133
*1482 FILLER_124_139
*1483 FILLER_124_141
*1484 FILLER_124_15
*1485 FILLER_124_153
*1486 FILLER_124_165
*1487 FILLER_124_175
*1488 FILLER_124_181
*1489 FILLER_124_187
*1490 FILLER_124_195
*1491 FILLER_124_197
*1492 FILLER_124_209
*1493 FILLER_124_221
*1494 FILLER_124_233
*1495 FILLER_124_245
*1496 FILLER_124_251
*1497 FILLER_124_253
*1498 FILLER_124_265
*1499 FILLER_124_27
*1500 FILLER_124_277
*1501 FILLER_124_289
*1502 FILLER_124_29
*1503 FILLER_124_3
*1504 FILLER_124_301
*1505 FILLER_124_307
*1506 FILLER_124_309
*1507 FILLER_124_321
*1508 FILLER_124_333
*1509 FILLER_124_345
*1510 FILLER_124_357
*1511 FILLER_124_363
*1512 FILLER_124_365
*1513 FILLER_124_377
*1514 FILLER_124_389
*1515 FILLER_124_401
*1516 FILLER_124_41
*1517 FILLER_124_53
*1518 FILLER_124_65
*1519 FILLER_124_77
*1520 FILLER_124_83
*1521 FILLER_124_85
*1522 FILLER_124_97
*1523 FILLER_125_105
*1524 FILLER_125_110
*1525 FILLER_125_113
*1526 FILLER_125_122
*1527 FILLER_125_134
*1528 FILLER_125_146
*1529 FILLER_125_15
*1530 FILLER_125_158
*1531 FILLER_125_166
*1532 FILLER_125_169
*1533 FILLER_125_173
*1534 FILLER_125_185
*1535 FILLER_125_197
*1536 FILLER_125_209
*1537 FILLER_125_221
*1538 FILLER_125_225
*1539 FILLER_125_237
*1540 FILLER_125_249
*1541 FILLER_125_261
*1542 FILLER_125_27
*1543 FILLER_125_273
*1544 FILLER_125_279
*1545 FILLER_125_281
*1546 FILLER_125_293
*1547 FILLER_125_3
*1548 FILLER_125_305
*1549 FILLER_125_317
*1550 FILLER_125_329